data_image0
_chemical_formula_structural       Ac8Cu4Ge4
_chemical_formula_sum              "Ac8 Cu4 Ge4"
_cell_length_a       7.6965314
_cell_length_b       7.6965314
_cell_length_c       7.6965314
_cell_angle_alpha    90.0
_cell_angle_beta     90.0
_cell_angle_gamma    90.0

_space_group_name_H-M_alt    "P 1"
_space_group_IT_number       1

loop_
  _space_group_symop_operation_xyz
  'x, y, z'

loop_
  _atom_site_type_symbol
  _atom_site_label
  _atom_site_symmetry_multiplicity
  _atom_site_fract_x
  _atom_site_fract_y
  _atom_site_fract_z
  _atom_site_occupancy
  Ac  Ac1       1.0  0.25  0.25  0.25  1.0000
  Ac  Ac2       1.0  0.75  0.75  0.25  1.0000
  Ac  Ac3       1.0  0.75  0.25  0.75  1.0000
  Ac  Ac4       1.0  0.25  0.75  0.75  1.0000
  Ac  Ac5       1.0  0.25  0.25  0.75  1.0000
  Ac  Ac6       1.0  0.75  0.75  0.75  1.0000
  Ac  Ac7       1.0  0.25  0.75  0.25  1.0000
  Ac  Ac8       1.0  0.75  0.25  0.25  1.0000
  Cu  Cu1       1.0  0.0  0.0  0.5  1.0000
  Cu  Cu2       1.0  0.5  0.0  0.0  1.0000
  Cu  Cu3       1.0  0.0  0.5  0.0  1.0000
  Cu  Cu4       1.0  0.5  0.5  0.5  1.0000
  Ge  Ge1       1.0  0.0  0.0  0.0  1.0000
  Ge  Ge2       1.0  0.0  0.5  0.5  1.0000
  Ge  Ge3       1.0  0.5  0.0  0.5  1.0000
  Ge  Ge4       1.0  0.5  0.5  0.0  1.0000
