data_image0
_chemical_formula_structural       FeSe
_chemical_formula_sum              "Fe1 Se1"
_cell_length_a       3.023974005260211
_cell_length_b       3.0689884000581515
_cell_length_c       3.0267672453036294
_cell_angle_alpha    89.80702101767741
_cell_angle_beta     90.85983552319652
_cell_angle_gamma    90.03647997424028

_space_group_name_H-M_alt    "P 1"
_space_group_IT_number       1

loop_
  _space_group_symop_operation_xyz
  'x, y, z'

loop_
  _atom_site_type_symbol
  _atom_site_label
  _atom_site_symmetry_multiplicity
  _atom_site_fract_x
  _atom_site_fract_y
  _atom_site_fract_z
  _atom_site_occupancy
  Fe  Fe1       1.0  0.03535231465036099  0.9873825961677527  0.9391243732710266  1.0000
  Se  Se1       1.0  0.4870086786671028  0.4966941220949534  0.5517018951985599  1.0000
