   CRYSTAL
   PRIMVEC
   3.0440022191   0.0000000000   0.0000000000
   0.0000000000   3.0440022191   0.0000000000
   0.0000000000   0.0000000000   3.0440022191
 PRIMCOORD
         5         1
   H    0.2339188790   0.6669269001   0.2953548914
   H   -0.8194760799  -0.6478428219   0.9064944628
   H   -0.3970276289   0.0956404077   0.1680748481
   H    0.0301563002   0.0888390938   0.0483277582
   H   -0.0189227659  -0.0149351993  -0.0149401723
