   CRYSTAL
   PRIMVEC
   3.0440022191   0.0000000000   0.0000000000
   0.0000000000   3.0440022191   0.0000000000
   0.0000000000   0.0000000000   3.0440022191
 PRIMCOORD
         5         1
   H   -0.3867167381  -0.1249373653   0.1394429689
   H   -0.3522008222  -0.4079246964  -0.3960869113
   H   -0.4521325761  -0.5371432930   0.4101491067
   H    0.0029883318  -0.0241100374   0.0217312763
   H    0.0201133253   0.0042995331   0.0223478452
